 # Positions of nodes
 CRYSTAL
 PRIMVEC
    200.00000000        0.00000000        0.00000000
      0.00000000       20.00000000        0.00000000
      0.00000000        0.00000000       20.00000000
 CONVVEC
    200.00000000        0.00000000        0.00000000
      0.00000000       20.00000000        0.00000000
      0.00000000        0.00000000       20.00000000
 PRIMCOORD
        3 1
1       20.03455072       18.31281393        5.57419968
1       29.94211887        6.02251509        0.13681028
1      145.31381761       14.30273779        5.73903809
