 # Positions of grains centers of mass
 CRYSTAL
 PRIMVEC
    200.00000000        0.00000000        0.00000000
      0.00000000       20.00000000        0.00000000
      0.00000000        0.00000000       20.00000000
 CONVVEC
    200.00000000        0.00000000        0.00000000
      0.00000000       20.00000000        0.00000000
      0.00000000        0.00000000       20.00000000
 PRIMCOORD
        3 1
1      127.29709697       11.13655146       16.39463735
1      147.36059911       11.87267500       16.61294235
1      162.20897528       11.63448574       16.17098076
